9
	Energy:       4.5404112
C          0.28455        0.77306        0.04413
C         -1.43338       -0.66454        0.47898
O          1.43913       -0.01863       -0.00537
H          0.29059        1.52268       -0.77945
H          0.28064        1.33297        1.00319
H         -1.02799       -1.48376        1.10985
H         -2.35522       -0.26639        0.95249
H         -1.69003       -1.06899       -0.52305
H          2.67545        0.80118       -0.04217
